# generated using pymatgen
data_MnCo11O16
_symmetry_space_group_name_H-M   'P 1'
_cell_length_a   5.50000000
_cell_length_b   5.50000000
_cell_length_c   8.50000000
_cell_angle_alpha   90.00000000
_cell_angle_beta   90.00000000
_cell_angle_gamma   90.00000000
_symmetry_Int_Tables_number   1
_chemical_formula_structural   MnCo11O16
_chemical_formula_sum   'Mn1 Co11 O16'
_cell_volume   257.12500000
_cell_formula_units_Z   1
loop_
 _symmetry_equiv_pos_site_id
 _symmetry_equiv_pos_as_xyz
  1  'x, y, z'
loop_
 _atom_site_type_symbol
 _atom_site_label
 _atom_site_symmetry_multiplicity
 _atom_site_fract_x
 _atom_site_fract_y
 _atom_site_fract_z
 _atom_site_occupancy
  Mn  Mn0  1  0.53636364  0.53636364  0.54117647  1
  O  O1  1  0.73335575  0.26823170  0.54929523  1
  O  O2  1  0.77153175  0.80253357  0.54093312  1
  O  O3  1  0.30388913  0.80504427  0.54438669  1
  O  O4  1  0.29778695  0.26618656  0.60765076  1
  O  O5  1  0.50000000  0.56736545  0.31442071  1
  O  O6  1  0.53631375  0.51141411  0.83558333  1
  Co  Co7  1  0.57202893  1.03837552  0.58081175  1
  Co  Co8  1  0.80389699  0.80389699  0.29148713  1
  Co  Co9  1  0.26753336  0.80654072  0.30969095  1
  Co  Co10  1  0.81641726  0.27421748  0.87016864  1
  Co  Co11  1  0.26753336  0.26478987  0.87100783  1
  Co  Co12  1  0.03671281  0.83487343  0.70630194  1
  Co  Co13  1  -0.05453714  0.26748348  0.42482046  1
  O  O14  1  0.53032797  1.04107699  0.26736188  1
  Co  Co15  1  0.48588353  0.28633870  0.16370532  1
  O  O16  1  0.00019953  0.61784556  0.27511640  1
  O  O17  1  -0.01817350  0.48720494  0.85601677  1
  O  O18  1  0.52224716  1.05323235  0.83722942  1
  O  O19  1  0.00064846  1.07803921  0.27629986  1
  O  O20  1  -0.03491707  1.10397850  0.82903379  1
  O  O21  1  0.83619573  0.80519391  0.03687693  1
  O  O22  1  0.25962669  0.80516066  0.00853835  1
  O  O23  1  0.80122878  0.30255019  -0.03077671  1
  O  O24  1  0.21897324  0.28219853  -0.02028692  1
  Co  Co25  1  0.02623769  0.49840379  -0.02394900  1
  Co  Co26  1  0.51281955  0.80863574  -0.16861131  1
  Co  Co27  1  0.00857962  1.10904103  -0.00261438  1
